/*--------------------------------*- C++ -*----------------------------------*\
| =========                 |                                                 |
| \\      /  F ield         | OpenFOAM: The Open Source CFD Toolbox           |
|  \\    /   O peration     | Version:  2.3.1                                 |
|   \\  /    A nd           | Web:      www.OpenFOAM.org                      |
|    \\/     M anipulation  |                                                 |
\*---------------------------------------------------------------------------*/
FoamFile
{
    version     2.0;
    format      ascii;
    class       dictionary;
    object      blockMeshDict;
}

// * * * * * * * * * * * * * * * * * * * * * * * * * * * * * * * * * * * * * //

convertToMeters 1;

vertices
(
    (5.38 0.0  0.48)
    (5.38 3.32  0.48)
    (0.0 3.32  0.48)
    (0.0 0.0  0.48)
    (5.38 0.0  0.52)
    (5.38 3.32  0.52)
    (0.0 3.32  0.52)
    (0.0 0.0  0.52)
);

blocks
(
    hex (0 1 2 3 4 5 6 7) (200 200 200) simpleGrading (1 1 1)
);

edges
(
);

patches
(
    wall top
    (
     (2 1 5 6)
    )

    wall left
    (
     (3 7 6 2)
    )

    wall right
    (
     (0 1 5 4)
    )

    wall bottom
    (
     (3 0 4 7)
    )

    empty ground
    (
     (0 3 2 1)
    )

    empty ceiling
    (
     (4 5 6 7)
    )
);

mergePatchPairs();
// ************************************************************************* //
