/*--------------------------------*- C++ -*----------------------------------*\
| =========                 |                                                 |
| \\      /  F ield         | OpenFOAM: The Open Source CFD Toolbox           |
|  \\    /   O peration     | Version:  2.3.1                                 |
|   \\  /    A nd           | Web:      www.OpenFOAM.org                      |
|    \\/     M anipulation  |                                                 |
\*---------------------------------------------------------------------------*/
FoamFile
{
    version     2.0;
    format      ascii;
    class       dictionary;
    object      snappyHexMeshDict;
}
// * * * * * * * * * * * * * * * * * * * * * * * * * * * * * * * * * * * * * //

// Which of the steps to run
castellatedMesh true;
snap            true;
addLayers       true;


// Geometry. Definition of all surfaces. All surfaces are of class
// searchableSurface.
// Surfaces are used
// - to specify refinement for any mesh cell intersecting it
// - to specify refinement for any mesh cell inside/outside/near
// - to 'snap' the mesh boundary to the surface
geometry
{
grain1
{
  type searchableCylinder;
    point1 (0.12 0.12 0.5);
    point2 (0.12 0.12 1.0);
    radius 0.02;

}
grain2
{
  type searchableCylinder;
    point1 (0.12 0.26 0.5);
    point2 (0.12 0.26 1.0);
    radius 0.02;

}
grain3
{
  type searchableCylinder;
    point1 (0.12 0.4 0.5);
    point2 (0.12 0.4 1.0);
    radius 0.02;

}
grain4
{
  type searchableCylinder;
    point1 (0.12 0.54 0.5);
    point2 (0.12 0.54 1.0);
    radius 0.02;

}
grain5
{
  type searchableCylinder;
    point1 (0.12 0.68 0.5);
    point2 (0.12 0.68 1.0);
    radius 0.02;

}
grain6
{
  type searchableCylinder;
    point1 (0.12 0.82 0.5);
    point2 (0.12 0.82 1.0);
    radius 0.02;

}
grain7
{
  type searchableCylinder;
    point1 (0.12 0.96 0.5);
    point2 (0.12 0.96 1.0);
    radius 0.02;

}
grain8
{
  type searchableCylinder;
    point1 (0.12 1.1 0.5);
    point2 (0.12 1.1 1.0);
    radius 0.02;

}
grain9
{
  type searchableCylinder;
    point1 (0.12 1.24 0.5);
    point2 (0.12 1.24 1.0);
    radius 0.02;

}
grain10
{
  type searchableCylinder;
    point1 (0.12 1.38 0.5);
    point2 (0.12 1.38 1.0);
    radius 0.02;

}
grain11
{
  type searchableCylinder;
    point1 (0.12 1.52 0.5);
    point2 (0.12 1.52 1.0);
    radius 0.02;

}
grain12
{
  type searchableCylinder;
    point1 (0.12 1.66 0.5);
    point2 (0.12 1.66 1.0);
    radius 0.02;

}
grain13
{
  type searchableCylinder;
    point1 (0.12 1.8 0.5);
    point2 (0.12 1.8 1.0);
    radius 0.02;

}
grain14
{
  type searchableCylinder;
    point1 (0.12 1.94 0.5);
    point2 (0.12 1.94 1.0);
    radius 0.02;

}
grain15
{
  type searchableCylinder;
    point1 (0.12 2.08 0.5);
    point2 (0.12 2.08 1.0);
    radius 0.02;

}
grain16
{
  type searchableCylinder;
    point1 (0.12 2.22 0.5);
    point2 (0.12 2.22 1.0);
    radius 0.02;

}
grain17
{
  type searchableCylinder;
    point1 (0.12 2.36 0.5);
    point2 (0.12 2.36 1.0);
    radius 0.02;

}
grain18
{
  type searchableCylinder;
    point1 (0.12 2.5 0.5);
    point2 (0.12 2.5 1.0);
    radius 0.02;

}
grain19
{
  type searchableCylinder;
    point1 (0.12 2.64 0.5);
    point2 (0.12 2.64 1.0);
    radius 0.02;

}
grain20
{
  type searchableCylinder;
    point1 (0.12 2.78 0.5);
    point2 (0.12 2.78 1.0);
    radius 0.02;

}
grain21
{
  type searchableCylinder;
    point1 (0.12 2.92 0.5);
    point2 (0.12 2.92 1.0);
    radius 0.02;

}
grain22
{
  type searchableCylinder;
    point1 (0.12 3.06 0.5);
    point2 (0.12 3.06 1.0);
    radius 0.02;

}
grain23
{
  type searchableCylinder;
    point1 (0.12 3.2 0.5);
    point2 (0.12 3.2 1.0);
    radius 0.02;

}
grain24
{
  type searchableCylinder;
    point1 (0.26 0.19 0.5);
    point2 (0.26 0.19 1.0);
    radius 0.02;

}
grain25
{
  type searchableCylinder;
    point1 (0.26 0.33 0.5);
    point2 (0.26 0.33 1.0);
    radius 0.02;

}
grain26
{
  type searchableCylinder;
    point1 (0.26 0.47 0.5);
    point2 (0.26 0.47 1.0);
    radius 0.02;

}
grain27
{
  type searchableCylinder;
    point1 (0.26 0.61 0.5);
    point2 (0.26 0.61 1.0);
    radius 0.02;

}
grain28
{
  type searchableCylinder;
    point1 (0.26 0.75 0.5);
    point2 (0.26 0.75 1.0);
    radius 0.02;

}
grain29
{
  type searchableCylinder;
    point1 (0.26 0.89 0.5);
    point2 (0.26 0.89 1.0);
    radius 0.02;

}
grain30
{
  type searchableCylinder;
    point1 (0.26 1.03 0.5);
    point2 (0.26 1.03 1.0);
    radius 0.02;

}
grain31
{
  type searchableCylinder;
    point1 (0.26 1.17 0.5);
    point2 (0.26 1.17 1.0);
    radius 0.02;

}
grain32
{
  type searchableCylinder;
    point1 (0.26 1.31 0.5);
    point2 (0.26 1.31 1.0);
    radius 0.02;

}
grain33
{
  type searchableCylinder;
    point1 (0.26 1.45 0.5);
    point2 (0.26 1.45 1.0);
    radius 0.02;

}
grain34
{
  type searchableCylinder;
    point1 (0.26 1.59 0.5);
    point2 (0.26 1.59 1.0);
    radius 0.02;

}
grain35
{
  type searchableCylinder;
    point1 (0.26 1.73 0.5);
    point2 (0.26 1.73 1.0);
    radius 0.02;

}
grain36
{
  type searchableCylinder;
    point1 (0.26 1.87 0.5);
    point2 (0.26 1.87 1.0);
    radius 0.02;

}
grain37
{
  type searchableCylinder;
    point1 (0.26 2.01 0.5);
    point2 (0.26 2.01 1.0);
    radius 0.02;

}
grain38
{
  type searchableCylinder;
    point1 (0.26 2.15 0.5);
    point2 (0.26 2.15 1.0);
    radius 0.02;

}
grain39
{
  type searchableCylinder;
    point1 (0.26 2.29 0.5);
    point2 (0.26 2.29 1.0);
    radius 0.02;

}
grain40
{
  type searchableCylinder;
    point1 (0.26 2.43 0.5);
    point2 (0.26 2.43 1.0);
    radius 0.02;

}
grain41
{
  type searchableCylinder;
    point1 (0.26 2.57 0.5);
    point2 (0.26 2.57 1.0);
    radius 0.02;

}
grain42
{
  type searchableCylinder;
    point1 (0.26 2.71 0.5);
    point2 (0.26 2.71 1.0);
    radius 0.02;

}
grain43
{
  type searchableCylinder;
    point1 (0.26 2.85 0.5);
    point2 (0.26 2.85 1.0);
    radius 0.02;

}
grain44
{
  type searchableCylinder;
    point1 (0.26 2.99 0.5);
    point2 (0.26 2.99 1.0);
    radius 0.02;

}
grain45
{
  type searchableCylinder;
    point1 (0.26 3.13 0.5);
    point2 (0.26 3.13 1.0);
    radius 0.02;

}
grain46
{
  type searchableCylinder;
    point1 (0.4 0.12 0.5);
    point2 (0.4 0.12 1.0);
    radius 0.02;

}
grain47
{
  type searchableCylinder;
    point1 (0.4 0.26 0.5);
    point2 (0.4 0.26 1.0);
    radius 0.02;

}
grain48
{
  type searchableCylinder;
    point1 (0.4 0.4 0.5);
    point2 (0.4 0.4 1.0);
    radius 0.02;

}
grain49
{
  type searchableCylinder;
    point1 (0.4 0.54 0.5);
    point2 (0.4 0.54 1.0);
    radius 0.02;

}
grain50
{
  type searchableCylinder;
    point1 (0.4 0.68 0.5);
    point2 (0.4 0.68 1.0);
    radius 0.02;

}
grain51
{
  type searchableCylinder;
    point1 (0.4 0.82 0.5);
    point2 (0.4 0.82 1.0);
    radius 0.02;

}
grain52
{
  type searchableCylinder;
    point1 (0.4 0.96 0.5);
    point2 (0.4 0.96 1.0);
    radius 0.02;

}
grain53
{
  type searchableCylinder;
    point1 (0.4 1.1 0.5);
    point2 (0.4 1.1 1.0);
    radius 0.02;

}
grain54
{
  type searchableCylinder;
    point1 (0.4 1.24 0.5);
    point2 (0.4 1.24 1.0);
    radius 0.02;

}
grain55
{
  type searchableCylinder;
    point1 (0.4 1.38 0.5);
    point2 (0.4 1.38 1.0);
    radius 0.02;

}
grain56
{
  type searchableCylinder;
    point1 (0.4 1.52 0.5);
    point2 (0.4 1.52 1.0);
    radius 0.02;

}
grain57
{
  type searchableCylinder;
    point1 (0.4 1.66 0.5);
    point2 (0.4 1.66 1.0);
    radius 0.02;

}
grain58
{
  type searchableCylinder;
    point1 (0.4 1.8 0.5);
    point2 (0.4 1.8 1.0);
    radius 0.02;

}
grain59
{
  type searchableCylinder;
    point1 (0.4 1.94 0.5);
    point2 (0.4 1.94 1.0);
    radius 0.02;

}
grain60
{
  type searchableCylinder;
    point1 (0.4 2.08 0.5);
    point2 (0.4 2.08 1.0);
    radius 0.02;

}
grain61
{
  type searchableCylinder;
    point1 (0.4 2.22 0.5);
    point2 (0.4 2.22 1.0);
    radius 0.02;

}
grain62
{
  type searchableCylinder;
    point1 (0.4 2.36 0.5);
    point2 (0.4 2.36 1.0);
    radius 0.02;

}
grain63
{
  type searchableCylinder;
    point1 (0.4 2.5 0.5);
    point2 (0.4 2.5 1.0);
    radius 0.02;

}
grain64
{
  type searchableCylinder;
    point1 (0.4 2.64 0.5);
    point2 (0.4 2.64 1.0);
    radius 0.02;

}
grain65
{
  type searchableCylinder;
    point1 (0.4 2.78 0.5);
    point2 (0.4 2.78 1.0);
    radius 0.02;

}
grain66
{
  type searchableCylinder;
    point1 (0.4 2.92 0.5);
    point2 (0.4 2.92 1.0);
    radius 0.02;

}
grain67
{
  type searchableCylinder;
    point1 (0.4 3.06 0.5);
    point2 (0.4 3.06 1.0);
    radius 0.02;

}
grain68
{
  type searchableCylinder;
    point1 (0.4 3.2 0.5);
    point2 (0.4 3.2 1.0);
    radius 0.02;

}
grain69
{
  type searchableCylinder;
    point1 (0.54 0.19 0.5);
    point2 (0.54 0.19 1.0);
    radius 0.02;

}
grain70
{
  type searchableCylinder;
    point1 (0.54 0.33 0.5);
    point2 (0.54 0.33 1.0);
    radius 0.02;

}
grain71
{
  type searchableCylinder;
    point1 (0.54 0.47 0.5);
    point2 (0.54 0.47 1.0);
    radius 0.02;

}
grain72
{
  type searchableCylinder;
    point1 (0.54 0.61 0.5);
    point2 (0.54 0.61 1.0);
    radius 0.02;

}
grain73
{
  type searchableCylinder;
    point1 (0.54 0.75 0.5);
    point2 (0.54 0.75 1.0);
    radius 0.02;

}
grain74
{
  type searchableCylinder;
    point1 (0.54 0.89 0.5);
    point2 (0.54 0.89 1.0);
    radius 0.02;

}
grain75
{
  type searchableCylinder;
    point1 (0.54 1.03 0.5);
    point2 (0.54 1.03 1.0);
    radius 0.02;

}
grain76
{
  type searchableCylinder;
    point1 (0.54 1.17 0.5);
    point2 (0.54 1.17 1.0);
    radius 0.02;

}
grain77
{
  type searchableCylinder;
    point1 (0.54 1.31 0.5);
    point2 (0.54 1.31 1.0);
    radius 0.02;

}
grain78
{
  type searchableCylinder;
    point1 (0.54 1.45 0.5);
    point2 (0.54 1.45 1.0);
    radius 0.02;

}
grain79
{
  type searchableCylinder;
    point1 (0.54 1.59 0.5);
    point2 (0.54 1.59 1.0);
    radius 0.02;

}
grain80
{
  type searchableCylinder;
    point1 (0.54 1.73 0.5);
    point2 (0.54 1.73 1.0);
    radius 0.02;

}
grain81
{
  type searchableCylinder;
    point1 (0.54 1.87 0.5);
    point2 (0.54 1.87 1.0);
    radius 0.02;

}
grain82
{
  type searchableCylinder;
    point1 (0.54 2.01 0.5);
    point2 (0.54 2.01 1.0);
    radius 0.02;

}
grain83
{
  type searchableCylinder;
    point1 (0.54 2.15 0.5);
    point2 (0.54 2.15 1.0);
    radius 0.02;

}
grain84
{
  type searchableCylinder;
    point1 (0.54 2.29 0.5);
    point2 (0.54 2.29 1.0);
    radius 0.02;

}
grain85
{
  type searchableCylinder;
    point1 (0.54 2.43 0.5);
    point2 (0.54 2.43 1.0);
    radius 0.02;

}
grain86
{
  type searchableCylinder;
    point1 (0.54 2.57 0.5);
    point2 (0.54 2.57 1.0);
    radius 0.02;

}
grain87
{
  type searchableCylinder;
    point1 (0.54 2.71 0.5);
    point2 (0.54 2.71 1.0);
    radius 0.02;

}
grain88
{
  type searchableCylinder;
    point1 (0.54 2.85 0.5);
    point2 (0.54 2.85 1.0);
    radius 0.02;

}
grain89
{
  type searchableCylinder;
    point1 (0.54 2.99 0.5);
    point2 (0.54 2.99 1.0);
    radius 0.02;

}
grain90
{
  type searchableCylinder;
    point1 (0.54 3.13 0.5);
    point2 (0.54 3.13 1.0);
    radius 0.02;

}
grain91
{
  type searchableCylinder;
    point1 (0.68 0.12 0.5);
    point2 (0.68 0.12 1.0);
    radius 0.02;

}
grain92
{
  type searchableCylinder;
    point1 (0.68 0.26 0.5);
    point2 (0.68 0.26 1.0);
    radius 0.02;

}
grain93
{
  type searchableCylinder;
    point1 (0.68 0.4 0.5);
    point2 (0.68 0.4 1.0);
    radius 0.02;

}
grain94
{
  type searchableCylinder;
    point1 (0.68 0.54 0.5);
    point2 (0.68 0.54 1.0);
    radius 0.02;

}
grain95
{
  type searchableCylinder;
    point1 (0.68 0.68 0.5);
    point2 (0.68 0.68 1.0);
    radius 0.02;

}
grain96
{
  type searchableCylinder;
    point1 (0.68 0.82 0.5);
    point2 (0.68 0.82 1.0);
    radius 0.02;

}
grain97
{
  type searchableCylinder;
    point1 (0.68 0.96 0.5);
    point2 (0.68 0.96 1.0);
    radius 0.02;

}
grain98
{
  type searchableCylinder;
    point1 (0.68 1.1 0.5);
    point2 (0.68 1.1 1.0);
    radius 0.02;

}
grain99
{
  type searchableCylinder;
    point1 (0.68 1.24 0.5);
    point2 (0.68 1.24 1.0);
    radius 0.02;

}
grain100
{
  type searchableCylinder;
    point1 (0.68 1.38 0.5);
    point2 (0.68 1.38 1.0);
    radius 0.02;

}
grain101
{
  type searchableCylinder;
    point1 (0.68 1.52 0.5);
    point2 (0.68 1.52 1.0);
    radius 0.02;

}
grain102
{
  type searchableCylinder;
    point1 (0.68 1.66 0.5);
    point2 (0.68 1.66 1.0);
    radius 0.02;

}
grain103
{
  type searchableCylinder;
    point1 (0.68 1.8 0.5);
    point2 (0.68 1.8 1.0);
    radius 0.02;

}
grain104
{
  type searchableCylinder;
    point1 (0.68 1.94 0.5);
    point2 (0.68 1.94 1.0);
    radius 0.02;

}
grain105
{
  type searchableCylinder;
    point1 (0.68 2.08 0.5);
    point2 (0.68 2.08 1.0);
    radius 0.02;

}
grain106
{
  type searchableCylinder;
    point1 (0.68 2.22 0.5);
    point2 (0.68 2.22 1.0);
    radius 0.02;

}
grain107
{
  type searchableCylinder;
    point1 (0.68 2.36 0.5);
    point2 (0.68 2.36 1.0);
    radius 0.02;

}
grain108
{
  type searchableCylinder;
    point1 (0.68 2.5 0.5);
    point2 (0.68 2.5 1.0);
    radius 0.02;

}
grain109
{
  type searchableCylinder;
    point1 (0.68 2.64 0.5);
    point2 (0.68 2.64 1.0);
    radius 0.02;

}
grain110
{
  type searchableCylinder;
    point1 (0.68 2.78 0.5);
    point2 (0.68 2.78 1.0);
    radius 0.02;

}
grain111
{
  type searchableCylinder;
    point1 (0.68 2.92 0.5);
    point2 (0.68 2.92 1.0);
    radius 0.02;

}
grain112
{
  type searchableCylinder;
    point1 (0.68 3.06 0.5);
    point2 (0.68 3.06 1.0);
    radius 0.02;

}
grain113
{
  type searchableCylinder;
    point1 (0.68 3.2 0.5);
    point2 (0.68 3.2 1.0);
    radius 0.02;

}
grain114
{
  type searchableCylinder;
    point1 (0.82 0.19 0.5);
    point2 (0.82 0.19 1.0);
    radius 0.02;

}
grain115
{
  type searchableCylinder;
    point1 (0.82 0.33 0.5);
    point2 (0.82 0.33 1.0);
    radius 0.02;

}
grain116
{
  type searchableCylinder;
    point1 (0.82 0.47 0.5);
    point2 (0.82 0.47 1.0);
    radius 0.02;

}
grain117
{
  type searchableCylinder;
    point1 (0.82 0.61 0.5);
    point2 (0.82 0.61 1.0);
    radius 0.02;

}
grain118
{
  type searchableCylinder;
    point1 (0.82 0.75 0.5);
    point2 (0.82 0.75 1.0);
    radius 0.02;

}
grain119
{
  type searchableCylinder;
    point1 (0.82 0.89 0.5);
    point2 (0.82 0.89 1.0);
    radius 0.02;

}
grain120
{
  type searchableCylinder;
    point1 (0.82 1.03 0.5);
    point2 (0.82 1.03 1.0);
    radius 0.02;

}
grain121
{
  type searchableCylinder;
    point1 (0.82 1.17 0.5);
    point2 (0.82 1.17 1.0);
    radius 0.02;

}
grain122
{
  type searchableCylinder;
    point1 (0.82 1.31 0.5);
    point2 (0.82 1.31 1.0);
    radius 0.02;

}
grain123
{
  type searchableCylinder;
    point1 (0.82 1.45 0.5);
    point2 (0.82 1.45 1.0);
    radius 0.02;

}
grain124
{
  type searchableCylinder;
    point1 (0.82 1.59 0.5);
    point2 (0.82 1.59 1.0);
    radius 0.02;

}
grain125
{
  type searchableCylinder;
    point1 (0.82 1.73 0.5);
    point2 (0.82 1.73 1.0);
    radius 0.02;

}
grain126
{
  type searchableCylinder;
    point1 (0.82 1.87 0.5);
    point2 (0.82 1.87 1.0);
    radius 0.02;

}
grain127
{
  type searchableCylinder;
    point1 (0.82 2.01 0.5);
    point2 (0.82 2.01 1.0);
    radius 0.02;

}
grain128
{
  type searchableCylinder;
    point1 (0.82 2.15 0.5);
    point2 (0.82 2.15 1.0);
    radius 0.02;

}
grain129
{
  type searchableCylinder;
    point1 (0.82 2.29 0.5);
    point2 (0.82 2.29 1.0);
    radius 0.02;

}
grain130
{
  type searchableCylinder;
    point1 (0.82 2.43 0.5);
    point2 (0.82 2.43 1.0);
    radius 0.02;

}
grain131
{
  type searchableCylinder;
    point1 (0.82 2.57 0.5);
    point2 (0.82 2.57 1.0);
    radius 0.02;

}
grain132
{
  type searchableCylinder;
    point1 (0.82 2.71 0.5);
    point2 (0.82 2.71 1.0);
    radius 0.02;

}
grain133
{
  type searchableCylinder;
    point1 (0.82 2.85 0.5);
    point2 (0.82 2.85 1.0);
    radius 0.02;

}
grain134
{
  type searchableCylinder;
    point1 (0.82 2.99 0.5);
    point2 (0.82 2.99 1.0);
    radius 0.02;

}
grain135
{
  type searchableCylinder;
    point1 (0.82 3.13 0.5);
    point2 (0.82 3.13 1.0);
    radius 0.02;

}
grain136
{
  type searchableCylinder;
    point1 (0.96 0.12 0.5);
    point2 (0.96 0.12 1.0);
    radius 0.02;

}
grain137
{
  type searchableCylinder;
    point1 (0.96 0.26 0.5);
    point2 (0.96 0.26 1.0);
    radius 0.02;

}
grain138
{
  type searchableCylinder;
    point1 (0.96 0.4 0.5);
    point2 (0.96 0.4 1.0);
    radius 0.02;

}
grain139
{
  type searchableCylinder;
    point1 (0.96 0.54 0.5);
    point2 (0.96 0.54 1.0);
    radius 0.02;

}
grain140
{
  type searchableCylinder;
    point1 (0.96 0.68 0.5);
    point2 (0.96 0.68 1.0);
    radius 0.02;

}
grain141
{
  type searchableCylinder;
    point1 (0.96 0.82 0.5);
    point2 (0.96 0.82 1.0);
    radius 0.02;

}
grain142
{
  type searchableCylinder;
    point1 (0.96 0.96 0.5);
    point2 (0.96 0.96 1.0);
    radius 0.02;

}
grain143
{
  type searchableCylinder;
    point1 (0.96 1.1 0.5);
    point2 (0.96 1.1 1.0);
    radius 0.02;

}
grain144
{
  type searchableCylinder;
    point1 (0.96 1.24 0.5);
    point2 (0.96 1.24 1.0);
    radius 0.02;

}
grain145
{
  type searchableCylinder;
    point1 (0.96 1.38 0.5);
    point2 (0.96 1.38 1.0);
    radius 0.02;

}
grain146
{
  type searchableCylinder;
    point1 (0.96 1.52 0.5);
    point2 (0.96 1.52 1.0);
    radius 0.02;

}
grain147
{
  type searchableCylinder;
    point1 (0.96 1.66 0.5);
    point2 (0.96 1.66 1.0);
    radius 0.02;

}
grain148
{
  type searchableCylinder;
    point1 (0.96 1.8 0.5);
    point2 (0.96 1.8 1.0);
    radius 0.02;

}
grain149
{
  type searchableCylinder;
    point1 (0.96 1.94 0.5);
    point2 (0.96 1.94 1.0);
    radius 0.02;

}
grain150
{
  type searchableCylinder;
    point1 (0.96 2.08 0.5);
    point2 (0.96 2.08 1.0);
    radius 0.02;

}
grain151
{
  type searchableCylinder;
    point1 (0.96 2.22 0.5);
    point2 (0.96 2.22 1.0);
    radius 0.02;

}
grain152
{
  type searchableCylinder;
    point1 (0.96 2.36 0.5);
    point2 (0.96 2.36 1.0);
    radius 0.02;

}
grain153
{
  type searchableCylinder;
    point1 (0.96 2.5 0.5);
    point2 (0.96 2.5 1.0);
    radius 0.02;

}
grain154
{
  type searchableCylinder;
    point1 (0.96 2.64 0.5);
    point2 (0.96 2.64 1.0);
    radius 0.02;

}
grain155
{
  type searchableCylinder;
    point1 (0.96 2.78 0.5);
    point2 (0.96 2.78 1.0);
    radius 0.02;

}
grain156
{
  type searchableCylinder;
    point1 (0.96 2.92 0.5);
    point2 (0.96 2.92 1.0);
    radius 0.02;

}
grain157
{
  type searchableCylinder;
    point1 (0.96 3.06 0.5);
    point2 (0.96 3.06 1.0);
    radius 0.02;

}
grain158
{
  type searchableCylinder;
    point1 (0.96 3.2 0.5);
    point2 (0.96 3.2 1.0);
    radius 0.02;

}
grain159
{
  type searchableCylinder;
    point1 (1.1 0.19 0.5);
    point2 (1.1 0.19 1.0);
    radius 0.02;

}
grain160
{
  type searchableCylinder;
    point1 (1.1 0.33 0.5);
    point2 (1.1 0.33 1.0);
    radius 0.02;

}
grain161
{
  type searchableCylinder;
    point1 (1.1 0.47 0.5);
    point2 (1.1 0.47 1.0);
    radius 0.02;

}
grain162
{
  type searchableCylinder;
    point1 (1.1 0.61 0.5);
    point2 (1.1 0.61 1.0);
    radius 0.02;

}
grain163
{
  type searchableCylinder;
    point1 (1.1 0.75 0.5);
    point2 (1.1 0.75 1.0);
    radius 0.02;

}
grain164
{
  type searchableCylinder;
    point1 (1.1 0.89 0.5);
    point2 (1.1 0.89 1.0);
    radius 0.02;

}
grain165
{
  type searchableCylinder;
    point1 (1.1 1.03 0.5);
    point2 (1.1 1.03 1.0);
    radius 0.02;

}
grain166
{
  type searchableCylinder;
    point1 (1.1 1.17 0.5);
    point2 (1.1 1.17 1.0);
    radius 0.02;

}
grain167
{
  type searchableCylinder;
    point1 (1.1 1.31 0.5);
    point2 (1.1 1.31 1.0);
    radius 0.02;

}
grain168
{
  type searchableCylinder;
    point1 (1.1 1.45 0.5);
    point2 (1.1 1.45 1.0);
    radius 0.02;

}
grain169
{
  type searchableCylinder;
    point1 (1.1 1.59 0.5);
    point2 (1.1 1.59 1.0);
    radius 0.02;

}
grain170
{
  type searchableCylinder;
    point1 (1.1 1.73 0.5);
    point2 (1.1 1.73 1.0);
    radius 0.02;

}
grain171
{
  type searchableCylinder;
    point1 (1.1 1.87 0.5);
    point2 (1.1 1.87 1.0);
    radius 0.02;

}
grain172
{
  type searchableCylinder;
    point1 (1.1 2.01 0.5);
    point2 (1.1 2.01 1.0);
    radius 0.02;

}
grain173
{
  type searchableCylinder;
    point1 (1.1 2.15 0.5);
    point2 (1.1 2.15 1.0);
    radius 0.02;

}
grain174
{
  type searchableCylinder;
    point1 (1.1 2.29 0.5);
    point2 (1.1 2.29 1.0);
    radius 0.02;

}
grain175
{
  type searchableCylinder;
    point1 (1.1 2.43 0.5);
    point2 (1.1 2.43 1.0);
    radius 0.02;

}
grain176
{
  type searchableCylinder;
    point1 (1.1 2.57 0.5);
    point2 (1.1 2.57 1.0);
    radius 0.02;

}
grain177
{
  type searchableCylinder;
    point1 (1.1 2.71 0.5);
    point2 (1.1 2.71 1.0);
    radius 0.02;

}
grain178
{
  type searchableCylinder;
    point1 (1.1 2.85 0.5);
    point2 (1.1 2.85 1.0);
    radius 0.02;

}
grain179
{
  type searchableCylinder;
    point1 (1.1 2.99 0.5);
    point2 (1.1 2.99 1.0);
    radius 0.02;

}
grain180
{
  type searchableCylinder;
    point1 (1.1 3.13 0.5);
    point2 (1.1 3.13 1.0);
    radius 0.02;

}
grain181
{
  type searchableCylinder;
    point1 (1.24 0.12 0.5);
    point2 (1.24 0.12 1.0);
    radius 0.02;

}
grain182
{
  type searchableCylinder;
    point1 (1.24 0.26 0.5);
    point2 (1.24 0.26 1.0);
    radius 0.02;

}
grain183
{
  type searchableCylinder;
    point1 (1.24 0.4 0.5);
    point2 (1.24 0.4 1.0);
    radius 0.02;

}
grain184
{
  type searchableCylinder;
    point1 (1.24 0.54 0.5);
    point2 (1.24 0.54 1.0);
    radius 0.02;

}
grain185
{
  type searchableCylinder;
    point1 (1.24 0.68 0.5);
    point2 (1.24 0.68 1.0);
    radius 0.02;

}
grain186
{
  type searchableCylinder;
    point1 (1.24 0.82 0.5);
    point2 (1.24 0.82 1.0);
    radius 0.02;

}
grain187
{
  type searchableCylinder;
    point1 (1.24 0.96 0.5);
    point2 (1.24 0.96 1.0);
    radius 0.02;

}
grain188
{
  type searchableCylinder;
    point1 (1.24 1.1 0.5);
    point2 (1.24 1.1 1.0);
    radius 0.02;

}
grain189
{
  type searchableCylinder;
    point1 (1.24 1.24 0.5);
    point2 (1.24 1.24 1.0);
    radius 0.02;

}
grain190
{
  type searchableCylinder;
    point1 (1.24 1.38 0.5);
    point2 (1.24 1.38 1.0);
    radius 0.02;

}
grain191
{
  type searchableCylinder;
    point1 (1.24 1.52 0.5);
    point2 (1.24 1.52 1.0);
    radius 0.02;

}
grain192
{
  type searchableCylinder;
    point1 (1.24 1.66 0.5);
    point2 (1.24 1.66 1.0);
    radius 0.02;

}
grain193
{
  type searchableCylinder;
    point1 (1.24 1.8 0.5);
    point2 (1.24 1.8 1.0);
    radius 0.02;

}
grain194
{
  type searchableCylinder;
    point1 (1.24 1.94 0.5);
    point2 (1.24 1.94 1.0);
    radius 0.02;

}
grain195
{
  type searchableCylinder;
    point1 (1.24 2.08 0.5);
    point2 (1.24 2.08 1.0);
    radius 0.02;

}
grain196
{
  type searchableCylinder;
    point1 (1.24 2.22 0.5);
    point2 (1.24 2.22 1.0);
    radius 0.02;

}
grain197
{
  type searchableCylinder;
    point1 (1.24 2.36 0.5);
    point2 (1.24 2.36 1.0);
    radius 0.02;

}
grain198
{
  type searchableCylinder;
    point1 (1.24 2.5 0.5);
    point2 (1.24 2.5 1.0);
    radius 0.02;

}
grain199
{
  type searchableCylinder;
    point1 (1.24 2.64 0.5);
    point2 (1.24 2.64 1.0);
    radius 0.02;

}
grain200
{
  type searchableCylinder;
    point1 (1.24 2.78 0.5);
    point2 (1.24 2.78 1.0);
    radius 0.02;

}
grain201
{
  type searchableCylinder;
    point1 (1.24 2.92 0.5);
    point2 (1.24 2.92 1.0);
    radius 0.02;

}
grain202
{
  type searchableCylinder;
    point1 (1.24 3.06 0.5);
    point2 (1.24 3.06 1.0);
    radius 0.02;

}
grain203
{
  type searchableCylinder;
    point1 (1.24 3.2 0.5);
    point2 (1.24 3.2 1.0);
    radius 0.02;

}
grain204
{
  type searchableCylinder;
    point1 (1.38 0.19 0.5);
    point2 (1.38 0.19 1.0);
    radius 0.02;

}
grain205
{
  type searchableCylinder;
    point1 (1.38 0.33 0.5);
    point2 (1.38 0.33 1.0);
    radius 0.02;

}
grain206
{
  type searchableCylinder;
    point1 (1.38 0.47 0.5);
    point2 (1.38 0.47 1.0);
    radius 0.02;

}
grain207
{
  type searchableCylinder;
    point1 (1.38 0.61 0.5);
    point2 (1.38 0.61 1.0);
    radius 0.02;

}
grain208
{
  type searchableCylinder;
    point1 (1.38 0.75 0.5);
    point2 (1.38 0.75 1.0);
    radius 0.02;

}
grain209
{
  type searchableCylinder;
    point1 (1.38 0.89 0.5);
    point2 (1.38 0.89 1.0);
    radius 0.02;

}
grain210
{
  type searchableCylinder;
    point1 (1.38 1.03 0.5);
    point2 (1.38 1.03 1.0);
    radius 0.02;

}
grain211
{
  type searchableCylinder;
    point1 (1.38 1.17 0.5);
    point2 (1.38 1.17 1.0);
    radius 0.02;

}
grain212
{
  type searchableCylinder;
    point1 (1.38 1.31 0.5);
    point2 (1.38 1.31 1.0);
    radius 0.02;

}
grain213
{
  type searchableCylinder;
    point1 (1.38 1.45 0.5);
    point2 (1.38 1.45 1.0);
    radius 0.02;

}
grain214
{
  type searchableCylinder;
    point1 (1.38 1.59 0.5);
    point2 (1.38 1.59 1.0);
    radius 0.02;

}
grain215
{
  type searchableCylinder;
    point1 (1.38 1.73 0.5);
    point2 (1.38 1.73 1.0);
    radius 0.02;

}
grain216
{
  type searchableCylinder;
    point1 (1.38 1.87 0.5);
    point2 (1.38 1.87 1.0);
    radius 0.02;

}
grain217
{
  type searchableCylinder;
    point1 (1.38 2.01 0.5);
    point2 (1.38 2.01 1.0);
    radius 0.02;

}
grain218
{
  type searchableCylinder;
    point1 (1.38 2.15 0.5);
    point2 (1.38 2.15 1.0);
    radius 0.02;

}
grain219
{
  type searchableCylinder;
    point1 (1.38 2.29 0.5);
    point2 (1.38 2.29 1.0);
    radius 0.02;

}
grain220
{
  type searchableCylinder;
    point1 (1.38 2.43 0.5);
    point2 (1.38 2.43 1.0);
    radius 0.02;

}
grain221
{
  type searchableCylinder;
    point1 (1.38 2.57 0.5);
    point2 (1.38 2.57 1.0);
    radius 0.02;

}
grain222
{
  type searchableCylinder;
    point1 (1.38 2.71 0.5);
    point2 (1.38 2.71 1.0);
    radius 0.02;

}
grain223
{
  type searchableCylinder;
    point1 (1.38 2.85 0.5);
    point2 (1.38 2.85 1.0);
    radius 0.02;

}
grain224
{
  type searchableCylinder;
    point1 (1.38 2.99 0.5);
    point2 (1.38 2.99 1.0);
    radius 0.02;

}
grain225
{
  type searchableCylinder;
    point1 (1.38 3.13 0.5);
    point2 (1.38 3.13 1.0);
    radius 0.02;

}
grain226
{
  type searchableCylinder;
    point1 (1.52 0.12 0.5);
    point2 (1.52 0.12 1.0);
    radius 0.02;

}
grain227
{
  type searchableCylinder;
    point1 (1.52 0.26 0.5);
    point2 (1.52 0.26 1.0);
    radius 0.02;

}
grain228
{
  type searchableCylinder;
    point1 (1.52 0.4 0.5);
    point2 (1.52 0.4 1.0);
    radius 0.02;

}
grain229
{
  type searchableCylinder;
    point1 (1.52 0.54 0.5);
    point2 (1.52 0.54 1.0);
    radius 0.02;

}
grain230
{
  type searchableCylinder;
    point1 (1.52 0.68 0.5);
    point2 (1.52 0.68 1.0);
    radius 0.02;

}
grain231
{
  type searchableCylinder;
    point1 (1.52 0.82 0.5);
    point2 (1.52 0.82 1.0);
    radius 0.02;

}
grain232
{
  type searchableCylinder;
    point1 (1.52 0.96 0.5);
    point2 (1.52 0.96 1.0);
    radius 0.02;

}
grain233
{
  type searchableCylinder;
    point1 (1.52 1.1 0.5);
    point2 (1.52 1.1 1.0);
    radius 0.02;

}
grain234
{
  type searchableCylinder;
    point1 (1.52 1.24 0.5);
    point2 (1.52 1.24 1.0);
    radius 0.02;

}
grain235
{
  type searchableCylinder;
    point1 (1.52 1.38 0.5);
    point2 (1.52 1.38 1.0);
    radius 0.02;

}
grain236
{
  type searchableCylinder;
    point1 (1.52 1.52 0.5);
    point2 (1.52 1.52 1.0);
    radius 0.02;

}
grain237
{
  type searchableCylinder;
    point1 (1.52 1.66 0.5);
    point2 (1.52 1.66 1.0);
    radius 0.02;

}
grain238
{
  type searchableCylinder;
    point1 (1.52 1.8 0.5);
    point2 (1.52 1.8 1.0);
    radius 0.02;

}
grain239
{
  type searchableCylinder;
    point1 (1.52 1.94 0.5);
    point2 (1.52 1.94 1.0);
    radius 0.02;

}
grain240
{
  type searchableCylinder;
    point1 (1.52 2.08 0.5);
    point2 (1.52 2.08 1.0);
    radius 0.02;

}
grain241
{
  type searchableCylinder;
    point1 (1.52 2.22 0.5);
    point2 (1.52 2.22 1.0);
    radius 0.02;

}
grain242
{
  type searchableCylinder;
    point1 (1.52 2.36 0.5);
    point2 (1.52 2.36 1.0);
    radius 0.02;

}
grain243
{
  type searchableCylinder;
    point1 (1.52 2.5 0.5);
    point2 (1.52 2.5 1.0);
    radius 0.02;

}
grain244
{
  type searchableCylinder;
    point1 (1.52 2.64 0.5);
    point2 (1.52 2.64 1.0);
    radius 0.02;

}
grain245
{
  type searchableCylinder;
    point1 (1.52 2.78 0.5);
    point2 (1.52 2.78 1.0);
    radius 0.02;

}
grain246
{
  type searchableCylinder;
    point1 (1.52 2.92 0.5);
    point2 (1.52 2.92 1.0);
    radius 0.02;

}
grain247
{
  type searchableCylinder;
    point1 (1.52 3.06 0.5);
    point2 (1.52 3.06 1.0);
    radius 0.02;

}
grain248
{
  type searchableCylinder;
    point1 (1.52 3.2 0.5);
    point2 (1.52 3.2 1.0);
    radius 0.02;

}
grain249
{
  type searchableCylinder;
    point1 (1.66 0.19 0.5);
    point2 (1.66 0.19 1.0);
    radius 0.02;

}
grain250
{
  type searchableCylinder;
    point1 (1.66 0.33 0.5);
    point2 (1.66 0.33 1.0);
    radius 0.02;

}
grain251
{
  type searchableCylinder;
    point1 (1.66 0.47 0.5);
    point2 (1.66 0.47 1.0);
    radius 0.02;

}
grain252
{
  type searchableCylinder;
    point1 (1.66 0.61 0.5);
    point2 (1.66 0.61 1.0);
    radius 0.02;

}
grain253
{
  type searchableCylinder;
    point1 (1.66 0.75 0.5);
    point2 (1.66 0.75 1.0);
    radius 0.02;

}
grain254
{
  type searchableCylinder;
    point1 (1.66 0.89 0.5);
    point2 (1.66 0.89 1.0);
    radius 0.02;

}
grain255
{
  type searchableCylinder;
    point1 (1.66 1.03 0.5);
    point2 (1.66 1.03 1.0);
    radius 0.02;

}
grain256
{